196225
  -OEChem-12272320213D

 43 44  0     1  0  0  0  0  0999 V2000
    3.9049    1.9345    1.1313 O   0  0  0  0  0  0  0  0  0  0  0  0
    5.1110    0.0773    0.5905 O   0  0  0  0  0  0  0  0  0  0  0  0
   -0.1293   -2.5872    0.1891 O   0  0  0  0  0  0  0  0  0  0  0  0
   -5.4159    0.8554    0.3344 O   0  0  0  0  0  0  0  0  0  0  0  0
    1.6237    0.1739    0.3502 C   0  0  0  0  0  0  0  0  0  0  0  0
    2.9480    0.4587   -0.4355 C   0  0  1  0  0  0  0  0  0  0  0  0
    0.7989   -0.5954   -0.7159 C   0  0  1  0  0  0  0  0  0  0  0  0
    3.1949   -0.8652   -1.1819 C   0  0  0  0  0  0  0  0  0  0  0  0
    1.8131   -1.4503   -1.4823 C   0  0  0  0  0  0  0  0  0  0  0  0
    1.8758   -0.6974    1.6082 C   0  0  0  0  0  0  0  0  0  0  0  0
    0.8827    1.4430    0.8008 C   0  0  0  0  0  0  0  0  0  0  0  0
    2.8612    1.6190   -1.4417 C   0  0  0  0  0  0  0  0  0  0  0  0
    4.1129    0.7716    0.4667 C   0  0  0  0  0  0  0  0  0  0  0  0
   -0.3190   -1.4239   -0.1584 C   0  0  0  0  0  0  0  0  0  0  0  0
   -1.6744   -0.8183   -0.0278 C   0  0  0  0  0  0  0  0  0  0  0  0
   -2.0506    0.1602   -0.9209 C   0  0  0  0  0  0  0  0  0  0  0  0
   -2.5013   -1.2590    0.9816 C   0  0  0  0  0  0  0  0  0  0  0  0
   -3.3191    0.7273   -0.7984 C   0  0  0  0  0  0  0  0  0  0  0  0
   -3.7698   -0.6920    1.1042 C   0  0  0  0  0  0  0  0  0  0  0  0
   -4.1788    0.3012    0.2142 C   0  0  0  0  0  0  0  0  0  0  0  0
   -5.7690    1.8666   -0.6083 C   0  0  0  0  0  0  0  0  0  0  0  0
    0.4271    0.1179   -1.4518 H   0  0  0  0  0  0  0  0  0  0  0  0
    3.7517   -1.5868   -0.5716 H   0  0  0  0  0  0  0  0  0  0  0  0
    3.7746   -0.7281   -2.1020 H   0  0  0  0  0  0  0  0  0  0  0  0
    1.6056   -1.4000   -2.5583 H   0  0  0  0  0  0  0  0  0  0  0  0
    1.7984   -2.5127   -1.2176 H   0  0  0  0  0  0  0  0  0  0  0  0
    0.9404   -0.9275    2.1306 H   0  0  0  0  0  0  0  0  0  0  0  0
    2.3610   -1.6483    1.3663 H   0  0  0  0  0  0  0  0  0  0  0  0
    2.5091   -0.1767    2.3346 H   0  0  0  0  0  0  0  0  0  0  0  0
   -0.0310    1.1900    1.3500 H   0  0  0  0  0  0  0  0  0  0  0  0
    1.4873    2.0574    1.4732 H   0  0  0  0  0  0  0  0  0  0  0  0
    0.5791    2.0668   -0.0460 H   0  0  0  0  0  0  0  0  0  0  0  0
    3.8132    1.7423   -1.9732 H   0  0  0  0  0  0  0  0  0  0  0  0
    2.0909    1.4511   -2.2011 H   0  0  0  0  0  0  0  0  0  0  0  0
    2.6476    2.5797   -0.9612 H   0  0  0  0  0  0  0  0  0  0  0  0
    4.6523    2.1547    1.7272 H   0  0  0  0  0  0  0  0  0  0  0  0
   -1.4434    0.4973   -1.7510 H   0  0  0  0  0  0  0  0  0  0  0  0
   -2.1930   -2.0271    1.6842 H   0  0  0  0  0  0  0  0  0  0  0  0
   -3.5768    1.4870   -1.5285 H   0  0  0  0  0  0  0  0  0  0  0  0
   -4.4346   -1.0269    1.8958 H   0  0  0  0  0  0  0  0  0  0  0  0
   -5.7994    1.4717   -1.6295 H   0  0  0  0  0  0  0  0  0  0  0  0
   -5.1179    2.7431   -0.5212 H   0  0  0  0  0  0  0  0  0  0  0  0
   -6.7837    2.1969   -0.3631 H   0  0  0  0  0  0  0  0  0  0  0  0
  1 13  1  0  0  0  0
  1 36  1  0  0  0  0
  2 13  2  0  0  0  0
  3 14  2  0  0  0  0
  4 20  1  0  0  0  0
  4 21  1  0  0  0  0
  5  6  1  0  0  0  0
  5  7  1  0  0  0  0
  5 10  1  0  0  0  0
  5 11  1  0  0  0  0
  6  8  1  0  0  0  0
  6 12  1  0  0  0  0
  6 13  1  0  0  0  0
  7  9  1  0  0  0  0
  7 14  1  0  0  0  0
  7 22  1  0  0  0  0
  8  9  1  0  0  0  0
  8 23  1  0  0  0  0
  8 24  1  0  0  0  0
  9 25  1  0  0  0  0
  9 26  1  0  0  0  0
 10 27  1  0  0  0  0
 10 28  1  0  0  0  0
 10 29  1  0  0  0  0
 11 30  1  0  0  0  0
 11 31  1  0  0  0  0
 11 32  1  0  0  0  0
 12 33  1  0  0  0  0
 12 34  1  0  0  0  0
 12 35  1  0  0  0  0
 14 15  1  0  0  0  0
 15 16  2  0  0  0  0
 15 17  1  0  0  0  0
 16 18  1  0  0  0  0
 16 37  1  0  0  0  0
 17 19  2  0  0  0  0
 17 38  1  0  0  0  0
 18 20  2  0  0  0  0
 18 39  1  0  0  0  0
 19 20  1  0  0  0  0
 19 40  1  0  0  0  0
 21 41  1  0  0  0  0
 21 42  1  0  0  0  0
 21 43  1  0  0  0  0
M  END
> <PUBCHEM_COMPOUND_CID>
196225

> <PUBCHEM_CONFORMER_RMSD>
0.8

> <PUBCHEM_CONFORMER_DIVERSEORDER>
1
5
2
6
10
4
8
3
9
7

> <PUBCHEM_MMFF94_PARTIAL_CHARGES>
20
1 -0.65
13 0.66
14 0.42
15 0.09
16 -0.15
17 -0.15
18 -0.15
19 -0.15
2 -0.57
20 0.08
21 0.28
3 -0.57
36 0.5
37 0.15
38 0.15
39 0.15
4 -0.36
40 0.15
6 0.06
7 0.06

> <PUBCHEM_EFFECTIVE_ROTOR_COUNT>
5

> <PUBCHEM_PHARMACOPHORE_FEATURES>
8
1 1 acceptor
1 2 acceptor
1 3 acceptor
1 4 acceptor
3 1 2 13 anion
3 5 10 11 hydrophobe
5 5 6 7 8 9 rings
6 15 16 17 18 19 20 rings

> <PUBCHEM_HEAVY_ATOM_COUNT>
21

> <PUBCHEM_ATOM_DEF_STEREO_COUNT>
2

> <PUBCHEM_ATOM_UDEF_STEREO_COUNT>
0

> <PUBCHEM_BOND_DEF_STEREO_COUNT>
0

> <PUBCHEM_BOND_UDEF_STEREO_COUNT>
0

> <PUBCHEM_ISOTOPIC_ATOM_COUNT>
0

> <PUBCHEM_COMPONENT_COUNT>
1

> <PUBCHEM_CACTVS_TAUTO_COUNT>
2

> <PUBCHEM_CONFORMER_ID>
0002FE8100000001

> <PUBCHEM_MMFF94_ENERGY>
84.9178

> <PUBCHEM_FEATURE_SELFOVERLAP>
40.653

> <PUBCHEM_SHAPE_FINGERPRINT>
10064457 181 17095805537673776850
10498660 4 18342177761114231977
10646746 165 18260271836761945599
11089746 13 18260258659944745269
11132069 177 18114188540453173015
11471102 20 17917998260818521062
11543360 7 13614528475760706554
11552529 35 14057872489324648081
12236239 1 15502382231307043703
12251169 10 17313101956093500879
12403259 118 18113898320701650925
12403259 415 18341343274184541415
12507560 40 17023453145401449511
12633257 1 16515687758072177565
12670546 177 14261350262770177593
12730499 353 18272661129905944375
12778500 126 16371562567023270813
13134695 92 17774723048244979646
13583140 156 16443610368540532303
13675066 3 18261954150035471442
14341114 176 17095240293938669864
14341114 328 16370733638339949789
14576447 43 12319739167670589852
15238133 3 17530970150461260965
15375358 24 18272653462866652753
16945 1 17702962438611335382
1813 80 13046222723965394098
18186145 218 18270699604918811262
19050596 39 16732704969321285971
19784866 9 18187359909367702706
19862831 5 14979960293443936439
20233049 118 18412261757270712872
20645477 70 17561089055279928534
20871999 31 12463576179452402391
21033648 29 18340195384119237192
21452121 103 18337951194897669278
21503847 285 17749399182243789612
22289505 5 17916865708128987421
231179 274 18413953883990271139
23402539 116 18342450469603586766
23402655 69 17346600759671691333
23557571 272 18263099840951420215
23559900 14 18042417828635046903
25 1 18202847664352879990
2838139 119 18200867397247259997
2916195 48 18272363226109380673
3060560 45 16774078449154785870
4072396 5 18059565863795346106
4280585 95 11884633769360865724
465052 167 11097856276590010016
474 4 17917992801693476802
495365 180 17703784817094710710
5104073 3 17313106413995689600
59755656 215 18340209575134034814
633830 44 18410856542940196207
6669772 16 9005042606340756130
7808743 9 18043824288410686132

> <PUBCHEM_SHAPE_MULTIPOLES>
408.69
10.4
1.91
1.37
8.29
0.08
-0.02
-5.56
0.76
0.14
-0.06
-0.8
0.03
1.03

> <PUBCHEM_SHAPE_SELFOVERLAP>
870.272

> <PUBCHEM_SHAPE_VOLUME>
230.2

> <PUBCHEM_COORDINATE_TYPE>
2
5
10

$$$$
