11322600
  -OEChem-12272320253D

 29 28  0     0  0  0  0  0  0999 V2000
    0.8294    0.8363   -0.8600 O   0  0  0  0  0  0  0  0  0  0  0  0
    0.8426   -0.8321    0.8606 O   0  0  0  0  0  0  0  0  0  0  0  0
   -0.8245   -0.8454   -0.8611 O   0  0  0  0  0  0  0  0  0  0  0  0
   -0.8389    0.8220    0.8604 O   0  0  0  0  0  0  0  0  0  0  0  0
    1.8371    1.8906    0.9332 O   0  0  0  0  0  0  0  0  0  0  0  0
    1.8981   -1.8401   -0.9317 O   0  0  0  0  0  0  0  0  0  0  0  0
   -1.8631   -1.8713    0.9309 O   0  0  0  0  0  0  0  0  0  0  0  0
   -1.8781    1.8456   -0.9325 O   0  0  0  0  0  0  0  0  0  0  0  0
    0.0022   -0.0048   -0.0001 C   0  0  0  0  0  0  0  0  0  0  0  0
    1.6828    1.7195   -0.2681 C   0  0  0  0  0  0  0  0  0  0  0  0
    1.7261   -1.6857    0.2696 C   0  0  0  0  0  0  0  0  0  0  0  0
   -1.6937   -1.7135   -0.2702 C   0  0  0  0  0  0  0  0  0  0  0  0
   -1.7143    1.6835    0.2688 C   0  0  0  0  0  0  0  0  0  0  0  0
    2.4249    2.4788   -1.3251 C   0  0  0  0  0  0  0  0  0  0  0  0
    2.4776   -2.4349    1.3271 C   0  0  0  0  0  0  0  0  0  0  0  0
   -2.4341   -2.4734   -1.3281 C   0  0  0  0  0  0  0  0  0  0  0  0
   -2.4742    2.4248    1.3262 C   0  0  0  0  0  0  0  0  0  0  0  0
    3.1166    3.1803   -0.8498 H   0  0  0  0  0  0  0  0  0  0  0  0
    3.0024    1.7863   -1.9427 H   0  0  0  0  0  0  0  0  0  0  0  0
    1.7197    3.0459   -1.9379 H   0  0  0  0  0  0  0  0  0  0  0  0
    3.0309   -1.7330    1.9563 H   0  0  0  0  0  0  0  0  0  0  0  0
    3.1918   -3.1139    0.8525 H   0  0  0  0  0  0  0  0  0  0  0  0
    1.7817   -3.0257    1.9280 H   0  0  0  0  0  0  0  0  0  0  0  0
   -1.7291   -3.0501   -1.9320 H   0  0  0  0  0  0  0  0  0  0  0  0
   -3.0012   -1.7799   -1.9542 H   0  0  0  0  0  0  0  0  0  0  0  0
   -3.1348   -3.1663   -0.8536 H   0  0  0  0  0  0  0  0  0  0  0  0
   -1.7813    2.9971    1.9481 H   0  0  0  0  0  0  0  0  0  0  0  0
   -3.0462    1.7196    1.9344 H   0  0  0  0  0  0  0  0  0  0  0  0
   -3.1714    3.1209    0.8510 H   0  0  0  0  0  0  0  0  0  0  0  0
  1  9  1  0  0  0  0
  1 10  1  0  0  0  0
  2  9  1  0  0  0  0
  2 11  1  0  0  0  0
  3  9  1  0  0  0  0
  3 12  1  0  0  0  0
  4  9  1  0  0  0  0
  4 13  1  0  0  0  0
  5 10  2  0  0  0  0
  6 11  2  0  0  0  0
  7 12  2  0  0  0  0
  8 13  2  0  0  0  0
 10 14  1  0  0  0  0
 11 15  1  0  0  0  0
 12 16  1  0  0  0  0
 13 17  1  0  0  0  0
 14 18  1  0  0  0  0
 14 19  1  0  0  0  0
 14 20  1  0  0  0  0
 15 21  1  0  0  0  0
 15 22  1  0  0  0  0
 15 23  1  0  0  0  0
 16 24  1  0  0  0  0
 16 25  1  0  0  0  0
 16 26  1  0  0  0  0
 17 27  1  0  0  0  0
 17 28  1  0  0  0  0
 17 29  1  0  0  0  0
M  END
> <PUBCHEM_COMPOUND_CID>
11322600

> <PUBCHEM_CONFORMER_RMSD>
0.8

> <PUBCHEM_CONFORMER_DIVERSEORDER>
1
2
7
5
4
6
3

> <PUBCHEM_MMFF94_PARTIAL_CHARGES>
17
1 -0.43
10 0.66
11 0.66
12 0.66
13 0.66
14 0.06
15 0.06
16 0.06
17 0.06
2 -0.43
3 -0.43
4 -0.43
5 -0.57
6 -0.57
7 -0.57
8 -0.57
9 1.12

> <PUBCHEM_EFFECTIVE_ROTOR_COUNT>
8

> <PUBCHEM_PHARMACOPHORE_FEATURES>
4
1 5 acceptor
1 6 acceptor
1 7 acceptor
1 8 acceptor

> <PUBCHEM_HEAVY_ATOM_COUNT>
17

> <PUBCHEM_ATOM_DEF_STEREO_COUNT>
0

> <PUBCHEM_ATOM_UDEF_STEREO_COUNT>
0

> <PUBCHEM_BOND_DEF_STEREO_COUNT>
0

> <PUBCHEM_BOND_UDEF_STEREO_COUNT>
0

> <PUBCHEM_ISOTOPIC_ATOM_COUNT>
0

> <PUBCHEM_COMPONENT_COUNT>
1

> <PUBCHEM_CACTVS_TAUTO_COUNT>
1

> <PUBCHEM_CONFORMER_ID>
00ACC4E800000001

> <PUBCHEM_MMFF94_ENERGY>
17.9316

> <PUBCHEM_FEATURE_SELFOVERLAP>
20.3

> <PUBCHEM_SHAPE_FINGERPRINT>
10219947 1 17690285910860906529
10756046 5 18410573993741412406
13172582 1 17906171750303924440
13380536 237 18338778079181487749
13380536 55 18335993042008723564
14614273 12 18262232356241798781
14943834 7 18410856563934756865
14993402 34 18050568434836608717
16945 1 17319874749803835257
187816 3 17690002657836385260
193761 8 18410575088958052709
20511035 2 18270681969714216656
21501502 16 18410856568234998917
22344851 341 18265356000193613192
23388829 49 18267003128746981538
23402539 116 17837218438764619868
23419403 2 15893813825071495081
2748010 2 16248846911337922756
3060560 45 17688564106012142309
353137 74 18192997242674272076
589210 1 18410575088958052704
6992083 37 18122613964306237795
81228 2 18122883379231682739

> <PUBCHEM_SHAPE_MULTIPOLES>
302.9
3.81
3.8
1.38
0.01
0.01
0
-0.03
-0.04
-0.02
0.04
0
0
-1.87

> <PUBCHEM_SHAPE_SELFOVERLAP>
595.122

> <PUBCHEM_SHAPE_VOLUME>
175.2

> <PUBCHEM_COORDINATE_TYPE>
2
5
10

$$$$
