129866520
  -OEChem-12272320273D

 37 36  0     0  0  0  0  0  0999 V2000
   -0.8525    0.2423    1.1627 O   0  0  0  0  0  0  0  0  0  0  0  0
    0.8337    1.1712   -0.2320 O   0  0  0  0  0  0  0  0  0  0  0  0
   -0.8460   -0.2538   -1.1622 O   0  0  0  0  0  0  0  0  0  0  0  0
    0.8495   -1.1590    0.2367 O   0  0  0  0  0  0  0  0  0  0  0  0
   -0.0039    0.0001    0.0013 C   0  0  0  0  0  0  0  0  0  0  0  0
   -1.3630    1.4948    1.2380 C   0  0  0  0  0  0  0  0  0  0  0  0
    1.3398    1.2634   -1.4852 C   0  0  0  0  0  0  0  0  0  0  0  0
   -1.3318   -1.5160   -1.2431 C   0  0  0  0  0  0  0  0  0  0  0  0
    1.3570   -1.2419    1.4899 C   0  0  0  0  0  0  0  0  0  0  0  0
   -2.6853    1.7098    0.5748 C   0  0  0  0  0  0  0  0  0  0  0  0
    2.6656    0.6111   -1.7114 C   0  0  0  0  0  0  0  0  0  0  0  0
   -2.6503   -1.7595   -0.5824 C   0  0  0  0  0  0  0  0  0  0  0  0
    2.6738   -0.5715    1.7147 C   0  0  0  0  0  0  0  0  0  0  0  0
   -0.6911    2.4567    1.8803 C   0  0  0  0  0  0  0  0  0  0  0  0
    0.6594    1.9091   -2.4387 C   0  0  0  0  0  0  0  0  0  0  0  0
   -0.6402   -2.4619   -1.8881 C   0  0  0  0  0  0  0  0  0  0  0  0
    0.6855   -1.8950    2.4448 C   0  0  0  0  0  0  0  0  0  0  0  0
   -3.0911    2.7037    0.7914 H   0  0  0  0  0  0  0  0  0  0  0  0
   -3.4117    0.9722    0.9303 H   0  0  0  0  0  0  0  0  0  0  0  0
   -2.5975    1.6179   -0.5114 H   0  0  0  0  0  0  0  0  0  0  0  0
    2.5864   -0.4764   -1.6284 H   0  0  0  0  0  0  0  0  0  0  0  0
    3.0651    0.8387   -2.7055 H   0  0  0  0  0  0  0  0  0  0  0  0
    3.3932    0.9664   -0.9749 H   0  0  0  0  0  0  0  0  0  0  0  0
   -2.5662   -1.6670    0.5040 H   0  0  0  0  0  0  0  0  0  0  0  0
   -3.3914   -1.0367   -0.9382 H   0  0  0  0  0  0  0  0  0  0  0  0
   -3.0349   -2.7613   -0.8009 H   0  0  0  0  0  0  0  0  0  0  0  0
    2.5797    0.5148    1.6314 H   0  0  0  0  0  0  0  0  0  0  0  0
    3.0772   -0.7931    2.7085 H   0  0  0  0  0  0  0  0  0  0  0  0
    3.4057   -0.9171    0.9778 H   0  0  0  0  0  0  0  0  0  0  0  0
    0.2638    2.2540    2.3542 H   0  0  0  0  0  0  0  0  0  0  0  0
   -1.0816    3.4662    1.9510 H   0  0  0  0  0  0  0  0  0  0  0  0
   -0.2988    2.3728   -2.2281 H   0  0  0  0  0  0  0  0  0  0  0  0
    1.0455    1.9922   -3.4489 H   0  0  0  0  0  0  0  0  0  0  0  0
    0.3111   -2.2386   -2.3599 H   0  0  0  0  0  0  0  0  0  0  0  0
   -1.0107   -3.4786   -1.9632 H   0  0  0  0  0  0  0  0  0  0  0  0
   -0.2663   -2.3721    2.2352 H   0  0  0  0  0  0  0  0  0  0  0  0
    1.0729   -1.9710    3.4550 H   0  0  0  0  0  0  0  0  0  0  0  0
  1  5  1  0  0  0  0
  1  6  1  0  0  0  0
  2  5  1  0  0  0  0
  2  7  1  0  0  0  0
  3  5  1  0  0  0  0
  3  8  1  0  0  0  0
  4  5  1  0  0  0  0
  4  9  1  0  0  0  0
  6 10  1  0  0  0  0
  6 14  2  0  0  0  0
  7 11  1  0  0  0  0
  7 15  2  0  0  0  0
  8 12  1  0  0  0  0
  8 16  2  0  0  0  0
  9 13  1  0  0  0  0
  9 17  2  0  0  0  0
 10 18  1  0  0  0  0
 10 19  1  0  0  0  0
 10 20  1  0  0  0  0
 11 21  1  0  0  0  0
 11 22  1  0  0  0  0
 11 23  1  0  0  0  0
 12 24  1  0  0  0  0
 12 25  1  0  0  0  0
 12 26  1  0  0  0  0
 13 27  1  0  0  0  0
 13 28  1  0  0  0  0
 13 29  1  0  0  0  0
 14 30  1  0  0  0  0
 14 31  1  0  0  0  0
 15 32  1  0  0  0  0
 15 33  1  0  0  0  0
 16 34  1  0  0  0  0
 16 35  1  0  0  0  0
 17 36  1  0  0  0  0
 17 37  1  0  0  0  0
M  END
> <PUBCHEM_COMPOUND_CID>
129866520

> <PUBCHEM_CONFORMER_RMSD>
1

> <PUBCHEM_CONFORMER_DIVERSEORDER>
7
62
37
59
50
63
52
69
39
29
70
25
38
48
66
64
55
61
71
20
73
57
34
43
40
31
32
45
49
51
65
42
41
72
54
18
30
28
33
36
47
58
10
12
44
53
1
56
8
14
19
2
67
15
35
4
9
22
27
24
68
11
60
23
16
21
13
46
26
3
17
6
5

> <PUBCHEM_MMFF94_PARTIAL_CHARGES>
25
1 -0.36
10 0.14
11 0.14
12 0.14
13 0.14
14 -0.3
15 -0.3
16 -0.3
17 -0.3
2 -0.36
3 -0.36
30 0.15
31 0.15
32 0.15
33 0.15
34 0.15
35 0.15
36 0.15
37 0.15
4 -0.36
5 1.12
6 -0.06
7 -0.06
8 -0.06
9 -0.06

> <PUBCHEM_EFFECTIVE_ROTOR_COUNT>
8

> <PUBCHEM_PHARMACOPHORE_FEATURES>
4
1 1 acceptor
1 2 acceptor
1 3 acceptor
1 4 acceptor

> <PUBCHEM_HEAVY_ATOM_COUNT>
17

> <PUBCHEM_ATOM_DEF_STEREO_COUNT>
0

> <PUBCHEM_ATOM_UDEF_STEREO_COUNT>
0

> <PUBCHEM_BOND_DEF_STEREO_COUNT>
0

> <PUBCHEM_BOND_UDEF_STEREO_COUNT>
0

> <PUBCHEM_ISOTOPIC_ATOM_COUNT>
0

> <PUBCHEM_COMPONENT_COUNT>
1

> <PUBCHEM_CACTVS_TAUTO_COUNT>
1

> <PUBCHEM_CONFORMER_ID>
07BD9B1800000007

> <PUBCHEM_MMFF94_ENERGY>
56.9079

> <PUBCHEM_FEATURE_SELFOVERLAP>
20.506

> <PUBCHEM_SHAPE_FINGERPRINT>
11578080 2 17543855378756641372
12326174 3 17323564753929630089
12423570 1 17828737595945818380
12654903 92 16105908248297106769
12716301 132 17703516527641121267
13898156 1 18413107264236814338
14817 1 17702641320405864204
14863182 85 17772177623482577669
15881359 60 17326858834989608555
16945 1 17396643871615804154
19765921 60 17614001115478822493
20233049 118 18199178663297774895
20600515 1 17559658719991658531
21524375 3 17832192368934393189
22112679 90 18408600349174253388
23419403 2 15502378876668514468
23526113 38 16965774216922630878
298252 57 17910716152337170636
5845 1 17623236828326505263
68419 9 18410577300866229641
76951 1 17690548006755072024

> <PUBCHEM_SHAPE_MULTIPOLES>
326.37
3.09
2.85
2.81
0
0.02
0
-0.02
-0.04
-1.06
0.04
1.04
0
-2.17

> <PUBCHEM_SHAPE_SELFOVERLAP>
636.801

> <PUBCHEM_SHAPE_VOLUME>
194.5

> <PUBCHEM_COORDINATE_TYPE>
2
5
10

$$$$
