188653
  -OEChem-12272320223D

 46 48  0     1  0  0  0  0  0999 V2000
    2.9949   -1.1597   -0.2063 O   0  0  0  0  0  0  0  0  0  0  0  0
   -0.5572   -0.7651   -0.2285 O   0  0  0  0  0  0  0  0  0  0  0  0
    2.7393    0.2646   -0.1270 C   0  0  1  0  0  0  0  0  0  0  0  0
    1.7098   -1.5922    0.3044 C   0  0  2  0  0  0  0  0  0  0  0  0
    0.7620   -0.9282   -0.7061 C   0  0  2  0  0  0  0  0  0  0  0  0
    1.4717    0.4004   -0.9835 C   0  0  0  0  0  0  0  0  0  0  0  0
    2.3919    0.4301    1.3574 C   0  0  0  0  0  0  0  0  0  0  0  0
    1.6782   -0.8872    1.6668 C   0  0  0  0  0  0  0  0  0  0  0  0
    3.9139    1.0906   -0.5978 C   0  0  0  0  0  0  0  0  0  0  0  0
    1.5898   -3.0978    0.3822 C   0  0  0  0  0  0  0  0  0  0  0  0
    3.6399    2.5888   -0.4264 C   0  0  0  0  0  0  0  0  0  0  0  0
    5.1960    0.7039    0.1480 C   0  0  0  0  0  0  0  0  0  0  0  0
   -1.3755   -0.0629   -1.1593 C   0  0  0  0  0  0  0  0  0  0  0  0
   -2.7378    0.0482   -0.5490 C   0  0  0  0  0  0  0  0  0  0  0  0
   -3.0755    1.1381    0.2502 C   0  0  0  0  0  0  0  0  0  0  0  0
   -3.6691   -0.9591   -0.7921 C   0  0  0  0  0  0  0  0  0  0  0  0
   -4.3509    1.2212    0.8091 C   0  0  0  0  0  0  0  0  0  0  0  0
   -2.0917    2.2281    0.5242 C   0  0  0  0  0  0  0  0  0  0  0  0
   -4.9444   -0.8759   -0.2335 C   0  0  0  0  0  0  0  0  0  0  0  0
   -5.2853    0.2142    0.5672 C   0  0  0  0  0  0  0  0  0  0  0  0
    0.7376   -1.5184   -1.6325 H   0  0  0  0  0  0  0  0  0  0  0  0
    1.7248    0.4570   -2.0488 H   0  0  0  0  0  0  0  0  0  0  0  0
    0.9130    1.2993   -0.7103 H   0  0  0  0  0  0  0  0  0  0  0  0
    1.7532    1.2986    1.5494 H   0  0  0  0  0  0  0  0  0  0  0  0
    3.2660    0.5086    2.0091 H   0  0  0  0  0  0  0  0  0  0  0  0
    2.2567   -1.4437    2.4137 H   0  0  0  0  0  0  0  0  0  0  0  0
    0.6679   -0.7428    2.0602 H   0  0  0  0  0  0  0  0  0  0  0  0
    4.0923    0.8833   -1.6610 H   0  0  0  0  0  0  0  0  0  0  0  0
    1.7296   -3.5517   -0.6049 H   0  0  0  0  0  0  0  0  0  0  0  0
    2.3697   -3.5183    1.0263 H   0  0  0  0  0  0  0  0  0  0  0  0
    0.6132   -3.4011    0.7715 H   0  0  0  0  0  0  0  0  0  0  0  0
    4.4840    3.1743   -0.8074 H   0  0  0  0  0  0  0  0  0  0  0  0
    2.7513    2.8983   -0.9852 H   0  0  0  0  0  0  0  0  0  0  0  0
    3.4981    2.8628    0.6240 H   0  0  0  0  0  0  0  0  0  0  0  0
    5.1790    1.0005    1.2006 H   0  0  0  0  0  0  0  0  0  0  0  0
    6.0556    1.2096   -0.3074 H   0  0  0  0  0  0  0  0  0  0  0  0
    5.3909   -0.3716    0.0924 H   0  0  0  0  0  0  0  0  0  0  0  0
   -1.4322   -0.6349   -2.0948 H   0  0  0  0  0  0  0  0  0  0  0  0
   -0.9873    0.9233   -1.4243 H   0  0  0  0  0  0  0  0  0  0  0  0
   -3.4162   -1.8154   -1.4117 H   0  0  0  0  0  0  0  0  0  0  0  0
   -4.6333    2.0640    1.4345 H   0  0  0  0  0  0  0  0  0  0  0  0
   -2.4706    2.9335    1.2723 H   0  0  0  0  0  0  0  0  0  0  0  0
   -1.1563    1.8210    0.9223 H   0  0  0  0  0  0  0  0  0  0  0  0
   -1.8862    2.7993   -0.3867 H   0  0  0  0  0  0  0  0  0  0  0  0
   -5.6719   -1.6602   -0.4212 H   0  0  0  0  0  0  0  0  0  0  0  0
   -6.2784    0.2787    1.0021 H   0  0  0  0  0  0  0  0  0  0  0  0
  1  3  1  0  0  0  0
  1  4  1  0  0  0  0
  2  5  1  0  0  0  0
  2 13  1  0  0  0  0
  3  6  1  0  0  0  0
  3  7  1  0  0  0  0
  3  9  1  0  0  0  0
  4  5  1  0  0  0  0
  4  8  1  0  0  0  0
  4 10  1  0  0  0  0
  5  6  1  0  0  0  0
  5 21  1  0  0  0  0
  6 22  1  0  0  0  0
  6 23  1  0  0  0  0
  7  8  1  0  0  0  0
  7 24  1  0  0  0  0
  7 25  1  0  0  0  0
  8 26  1  0  0  0  0
  8 27  1  0  0  0  0
  9 11  1  0  0  0  0
  9 12  1  0  0  0  0
  9 28  1  0  0  0  0
 10 29  1  0  0  0  0
 10 30  1  0  0  0  0
 10 31  1  0  0  0  0
 11 32  1  0  0  0  0
 11 33  1  0  0  0  0
 11 34  1  0  0  0  0
 12 35  1  0  0  0  0
 12 36  1  0  0  0  0
 12 37  1  0  0  0  0
 13 14  1  0  0  0  0
 13 38  1  0  0  0  0
 13 39  1  0  0  0  0
 14 15  1  0  0  0  0
 14 16  2  0  0  0  0
 15 17  2  0  0  0  0
 15 18  1  0  0  0  0
 16 19  1  0  0  0  0
 16 40  1  0  0  0  0
 17 20  1  0  0  0  0
 17 41  1  0  0  0  0
 18 42  1  0  0  0  0
 18 43  1  0  0  0  0
 18 44  1  0  0  0  0
 19 20  2  0  0  0  0
 19 45  1  0  0  0  0
 20 46  1  0  0  0  0
M  END
> <PUBCHEM_COMPOUND_CID>
188653

> <PUBCHEM_CONFORMER_RMSD>
0.8

> <PUBCHEM_CONFORMER_DIVERSEORDER>
1
29
40
38
8
21
46
25
36
41
18
31
44
24
39
19
32
43
11
23
45
37
33
16
34
9
2
30
42
3
35
20
14
22
10
28
5
13
17
7
12
26
6
27
4
15

> <PUBCHEM_MMFF94_PARTIAL_CHARGES>
17
1 -0.56
13 0.42
14 -0.14
15 -0.14
16 -0.15
17 -0.15
18 0.14
19 -0.15
2 -0.56
20 -0.15
3 0.28
4 0.28
40 0.15
41 0.15
45 0.15
46 0.15
5 0.28

> <PUBCHEM_EFFECTIVE_ROTOR_COUNT>
5

> <PUBCHEM_PHARMACOPHORE_FEATURES>
5
1 1 acceptor
1 2 acceptor
3 9 11 12 hydrophobe
6 14 15 16 17 19 20 rings
7 1 3 4 5 6 7 8 rings

> <PUBCHEM_HEAVY_ATOM_COUNT>
20

> <PUBCHEM_ATOM_DEF_STEREO_COUNT>
0

> <PUBCHEM_ATOM_UDEF_STEREO_COUNT>
3

> <PUBCHEM_BOND_DEF_STEREO_COUNT>
0

> <PUBCHEM_BOND_UDEF_STEREO_COUNT>
0

> <PUBCHEM_ISOTOPIC_ATOM_COUNT>
0

> <PUBCHEM_COMPONENT_COUNT>
1

> <PUBCHEM_CACTVS_TAUTO_COUNT>
1

> <PUBCHEM_CONFORMER_ID>
0002E0ED00000001

> <PUBCHEM_MMFF94_ENERGY>
76.4475

> <PUBCHEM_FEATURE_SELFOVERLAP>
25.371

> <PUBCHEM_SHAPE_FINGERPRINT>
10090160 65 18261108608081396559
10366900 7 18343013428621891307
10498660 4 18201718436068266809
10759866 29 18272092634600630635
12107183 9 17619633484356852395
12236239 1 18411136943710780909
12363563 72 15213306300706745773
12788726 201 17274269327446879961
128620 24 18260830406080800949
13009979 54 17842841023501505418
13134695 92 10952048966094538994
13224815 77 18408319961035284581
13631057 29 18194399120712551007
13897977 58 18202849859682457453
13955234 65 18334575707476111642
14251764 18 18333445457531639272
14252887 29 17386008334136991503
14289901 80 18411136896998845227
14341114 176 18340774749479581919
14341114 328 18412546522271259601
14787075 74 18337109089750855209
14849402 71 18336827598080358168
15238133 3 17417249810405226883
15375358 24 15213017154865748437
15848702 105 18272093850482927584
17492 89 18265615390718104395
18222031 100 8358266955937380604
19050596 39 18411697656413567251
19862831 5 12463570681767500815
201361 129 18411137992036163870
20279233 1 15357698574276374491
20715895 44 17762897672293806701
21065198 48 18340769248159212691
21503847 285 18410297969315693556
21524375 3 18187080706803191998
21652331 79 18342459235880192773
2255824 54 18337953368352126790
22854114 59 18040434395214376349
23559900 14 17773040744031062607
2637199 183 18342463664064912420
2916195 48 17774149236577905272
347723 3 17275389807220778622
392239 28 18265627648411602355
4340502 62 17748831843113230147
474 4 18188213211958604268
5104073 3 18262525780307644105
5161694 15 13326853335880351701
633830 44 18341894138516528892
6442390 28 18338237179875254122
7097593 13 17833830474198867795
7495541 125 16988560259821132894
960060 61 11240004490151165664
9882013 296 18260545623926635341

> <PUBCHEM_SHAPE_MULTIPOLES>
399.85
10.61
2.33
1.15
6.24
0.39
0.21
-3.26
0.56
-1.49
0.24
-0.15
0.04
-1.11

> <PUBCHEM_SHAPE_SELFOVERLAP>
851.695

> <PUBCHEM_SHAPE_VOLUME>
227.1

> <PUBCHEM_COORDINATE_TYPE>
2
5
10

$$$$
