129774605
  -OEChem-12272320243D

 21 22  0     0  0  0  0  0  0999 V2000
    1.1394    1.5062   -0.1738 O   0  0  0  0  0  0  0  0  0  0  0  0
   -0.2001   -0.1653   -1.2100 O   0  0  0  0  0  0  0  0  0  0  0  0
    0.2000   -0.1655    1.2099 O   0  0  0  0  0  0  0  0  0  0  0  0
   -1.1394    1.5062    0.1740 O   0  0  0  0  0  0  0  0  0  0  0  0
    3.2861    1.8813   -0.7398 O   0  0  0  0  0  0  0  0  0  0  0  0
   -1.1894   -1.8456   -2.3344 O   0  0  0  0  0  0  0  0  0  0  0  0
    1.1896   -1.8457    2.3344 O   0  0  0  0  0  0  0  0  0  0  0  0
   -3.2861    1.8812    0.7399 O   0  0  0  0  0  0  0  0  0  0  0  0
    0.0000    0.6132    0.0001 C   0  0  0  0  0  0  0  0  0  0  0  0
    2.3881    1.0883   -0.4706 C   0  0  0  0  0  0  0  0  0  0  0  0
   -1.1489   -1.1150   -1.3484 C   0  0  0  0  0  0  0  0  0  0  0  0
    1.1490   -1.1150    1.3484 C   0  0  0  0  0  0  0  0  0  0  0  0
   -2.3881    1.0882    0.4706 C   0  0  0  0  0  0  0  0  0  0  0  0
    2.6511   -0.3557   -0.5171 C   0  0  0  0  0  0  0  0  0  0  0  0
    2.1193   -1.3005    0.2623 C   0  0  0  0  0  0  0  0  0  0  0  0
   -2.1191   -1.3006   -0.2623 C   0  0  0  0  0  0  0  0  0  0  0  0
   -2.6512   -0.3557    0.5170 C   0  0  0  0  0  0  0  0  0  0  0  0
    3.4272   -0.6523   -1.2190 H   0  0  0  0  0  0  0  0  0  0  0  0
    2.4899   -2.3173    0.1546 H   0  0  0  0  0  0  0  0  0  0  0  0
   -2.4896   -2.3175   -0.1546 H   0  0  0  0  0  0  0  0  0  0  0  0
   -3.4274   -0.6525    1.2188 H   0  0  0  0  0  0  0  0  0  0  0  0
  1  9  1  0  0  0  0
  1 10  1  0  0  0  0
  2  9  1  0  0  0  0
  2 11  1  0  0  0  0
  3  9  1  0  0  0  0
  3 12  1  0  0  0  0
  4  9  1  0  0  0  0
  4 13  1  0  0  0  0
  5 10  2  0  0  0  0
  6 11  2  0  0  0  0
  7 12  2  0  0  0  0
  8 13  2  0  0  0  0
 10 14  1  0  0  0  0
 11 16  1  0  0  0  0
 12 15  1  0  0  0  0
 13 17  1  0  0  0  0
 14 15  2  0  0  0  0
 14 18  1  0  0  0  0
 15 19  1  0  0  0  0
 16 17  2  0  0  0  0
 16 20  1  0  0  0  0
 17 21  1  0  0  0  0
M  END
> <PUBCHEM_COMPOUND_CID>
129774605

> <PUBCHEM_CONFORMER_RMSD>
0.6

> <PUBCHEM_CONFORMER_DIVERSEORDER>
1
2

> <PUBCHEM_MMFF94_PARTIAL_CHARGES>
21
1 -0.43
10 0.71
11 0.71
12 0.71
13 0.71
14 -0.14
15 -0.14
16 -0.14
17 -0.14
18 0.15
19 0.15
2 -0.43
20 0.15
21 0.15
3 -0.43
4 -0.43
5 -0.57
6 -0.57
7 -0.57
8 -0.57
9 1.12

> <PUBCHEM_EFFECTIVE_ROTOR_COUNT>
0.8

> <PUBCHEM_PHARMACOPHORE_FEATURES>
6
1 5 acceptor
1 6 acceptor
1 7 acceptor
1 8 acceptor
7 1 3 9 10 12 14 15 rings
7 2 4 9 11 13 16 17 rings

> <PUBCHEM_HEAVY_ATOM_COUNT>
17

> <PUBCHEM_ATOM_DEF_STEREO_COUNT>
0

> <PUBCHEM_ATOM_UDEF_STEREO_COUNT>
0

> <PUBCHEM_BOND_DEF_STEREO_COUNT>
0

> <PUBCHEM_BOND_UDEF_STEREO_COUNT>
0

> <PUBCHEM_ISOTOPIC_ATOM_COUNT>
0

> <PUBCHEM_COMPONENT_COUNT>
1

> <PUBCHEM_CACTVS_TAUTO_COUNT>
1

> <PUBCHEM_CONFORMER_ID>
07BC340D00000001

> <PUBCHEM_MMFF94_ENERGY>
72.2732

> <PUBCHEM_FEATURE_SELFOVERLAP>
30.452

> <PUBCHEM_SHAPE_FINGERPRINT>
12423570 1 18199748042506111950
12491281 212 18270981114292008000
13538477 17 18341601651090832951
13898156 1 18267841982724579418
14787075 74 17612323248055584619
14817 1 16840738587783111714
15279308 10 18410852161598780581
15775835 57 18338530689060138788
16752209 62 17917131867536923823
16945 1 18338533983299574117
19422 9 18410579482709797895
19873495 37 18337407026894197284
20379382 53 17604426284656015643
20511035 2 17701249218706071375
20645476 183 18271248226940441367
21061003 4 17097760275800140450
22112679 90 18268409318182338960
23236772 104 18337675342175456905
23419403 2 16026759465394817275
23598291 2 18336265635145800044
298252 57 18201734941421415184
34934 24 18410854360617125160
353137 74 18190731123492323924
44249140 249 16443621294520757383
68250623 7 18410587179291081891
68419 9 18198598068991025159
81228 2 16986566888601429863
90525 40 18272938193497165279

> <PUBCHEM_SHAPE_MULTIPOLES>
302.9
4.4
2.07
1.62
0
0.25
0
1.62
0
0
0
0
-1.14
-1.39

> <PUBCHEM_SHAPE_SELFOVERLAP>
650.492

> <PUBCHEM_SHAPE_VOLUME>
158.6

> <PUBCHEM_COORDINATE_TYPE>
2
5
10

$$$$
