129679473
  -OEChem-12272320263D

 27 28  0     1  0  0  0  0  0999 V2000
   -0.2544    0.1121   -1.1796 O   0  0  0  0  0  0  0  0  0  0  0  0
    0.3309   -0.0919    1.1767 O   0  0  0  0  0  0  0  0  0  0  0  0
   -1.1010   -1.7066    0.1922 O   0  0  0  0  0  0  0  0  0  0  0  0
    1.0912   -1.6975   -0.4871 O   0  0  0  0  0  0  0  0  0  0  0  0
   -3.5016    1.6481   -0.8422 O   0  0  0  0  0  0  0  0  0  0  0  0
    3.1627    2.0279    0.5028 O   0  0  0  0  0  0  0  0  0  0  0  0
   -1.0592    2.1525   -1.6845 O   0  0  0  0  0  0  0  0  0  0  0  0
    1.1376    1.7628    2.1708 O   0  0  0  0  0  0  0  0  0  0  0  0
   -2.9793   -2.1510    1.3623 O   0  0  0  0  0  0  0  0  0  0  0  0
    3.0341   -1.9459   -1.5931 O   0  0  0  0  0  0  0  0  0  0  0  0
    0.0153   -0.7906   -0.0638 C   0  0  0  0  0  0  0  0  0  0  0  0
   -2.5882    0.5629   -0.7182 C   0  0  2  0  0  0  0  0  0  0  0  0
    2.2378    0.9988    0.1668 C   0  0  1  0  0  0  0  0  0  0  0  0
   -2.5879    0.1230    0.7297 C   0  0  0  0  0  0  0  0  0  0  0  0
    2.9859   -0.3159    0.1476 C   0  0  0  0  0  0  0  0  0  0  0  0
   -1.2375    1.0433   -1.1892 C   0  0  0  0  0  0  0  0  0  0  0  0
    1.1930    0.9511    1.2522 C   0  0  0  0  0  0  0  0  0  0  0  0
   -2.2478   -1.3359    0.8081 C   0  0  0  0  0  0  0  0  0  0  0  0
    2.3685   -1.3472   -0.7515 C   0  0  0  0  0  0  0  0  0  0  0  0
   -2.9319   -0.2284   -1.3944 H   0  0  0  0  0  0  0  0  0  0  0  0
    1.8050    1.2653   -0.7988 H   0  0  0  0  0  0  0  0  0  0  0  0
   -3.5954    0.2417    1.1499 H   0  0  0  0  0  0  0  0  0  0  0  0
   -1.9322    0.7188    1.3692 H   0  0  0  0  0  0  0  0  0  0  0  0
    3.0939   -0.7528    1.1481 H   0  0  0  0  0  0  0  0  0  0  0  0
    4.0084   -0.1456   -0.2151 H   0  0  0  0  0  0  0  0  0  0  0  0
   -3.5868    1.8526   -1.7893 H   0  0  0  0  0  0  0  0  0  0  0  0
    2.6885    2.8755    0.4496 H   0  0  0  0  0  0  0  0  0  0  0  0
  1 11  1  0  0  0  0
  1 16  1  0  0  0  0
  2 11  1  0  0  0  0
  2 17  1  0  0  0  0
  3 11  1  0  0  0  0
  3 18  1  0  0  0  0
  4 11  1  0  0  0  0
  4 19  1  0  0  0  0
  5 12  1  0  0  0  0
  5 26  1  0  0  0  0
  6 13  1  0  0  0  0
  6 27  1  0  0  0  0
  7 16  2  0  0  0  0
  8 17  2  0  0  0  0
  9 18  2  0  0  0  0
 10 19  2  0  0  0  0
 12 14  1  0  0  0  0
 12 16  1  0  0  0  0
 12 20  1  0  0  0  0
 13 15  1  0  0  0  0
 13 17  1  0  0  0  0
 13 21  1  0  0  0  0
 14 18  1  0  0  0  0
 14 22  1  0  0  0  0
 14 23  1  0  0  0  0
 15 19  1  0  0  0  0
 15 24  1  0  0  0  0
 15 25  1  0  0  0  0
M  END
> <PUBCHEM_COMPOUND_CID>
129679473

> <PUBCHEM_CONFORMER_RMSD>
0.6

> <PUBCHEM_CONFORMER_DIVERSEORDER>
1
7
3
13
9
11
10
12
2
4
5
8
6

> <PUBCHEM_MMFF94_PARTIAL_CHARGES>
21
1 -0.43
10 -0.57
11 1.12
12 0.34
13 0.34
14 0.06
15 0.06
16 0.66
17 0.66
18 0.66
19 0.66
2 -0.43
26 0.4
27 0.4
3 -0.43
4 -0.43
5 -0.68
6 -0.68
7 -0.57
8 -0.57
9 -0.57

> <PUBCHEM_EFFECTIVE_ROTOR_COUNT>
1.6

> <PUBCHEM_PHARMACOPHORE_FEATURES>
10
1 10 acceptor
1 5 acceptor
1 5 donor
1 6 acceptor
1 6 donor
1 7 acceptor
1 8 acceptor
1 9 acceptor
7 1 3 11 12 14 16 18 rings
7 2 4 11 13 15 17 19 rings

> <PUBCHEM_HEAVY_ATOM_COUNT>
19

> <PUBCHEM_ATOM_DEF_STEREO_COUNT>
0

> <PUBCHEM_ATOM_UDEF_STEREO_COUNT>
2

> <PUBCHEM_BOND_DEF_STEREO_COUNT>
0

> <PUBCHEM_BOND_UDEF_STEREO_COUNT>
0

> <PUBCHEM_ISOTOPIC_ATOM_COUNT>
0

> <PUBCHEM_COMPONENT_COUNT>
1

> <PUBCHEM_CACTVS_TAUTO_COUNT>
1

> <PUBCHEM_CONFORMER_ID>
07BAC07100000001

> <PUBCHEM_MMFF94_ENERGY>
48.9437

> <PUBCHEM_FEATURE_SELFOVERLAP>
50.771

> <PUBCHEM_SHAPE_FINGERPRINT>
10165383 225 17696766819068935600
12423570 1 18047481294012062330
12716301 132 17969209075776001377
13538477 17 16588020186845785015
13898156 1 16081360821950823467
14817 1 17534585391911596049
15219456 202 18411420630732727418
15501101 241 18198078051531032594
16945 1 18190468155503545214
17844478 74 18335988669726520675
18219364 16 17986945443825253336
19049666 15 18339643339024171155
22112679 90 16515402971338143311
22802520 49 18408887312955657446
23114952 82 18339933632143695356
23175994 123 17985842440594936838
23236772 104 15864652582217141597
23493267 7 16372145286805743957
23526113 38 18198055889858448854
23557571 272 18187089497999827704
23559900 14 18191027803550775934
238 59 17914585432412864501
25 1 17979914917601122149
2748010 2 18334860545290551239
5845 1 16609374106964087044
6049 1 18337966639610647678
77492 1 15769776844595115603
81228 2 17967817171728742323
9925002 15 16682032073411623156

> <PUBCHEM_SHAPE_MULTIPOLES>
332.32
5.1
2.31
1.6
0.15
0.08
0.17
0.09
-0.24
-0.06
-0.08
0
-0.4
2.13

> <PUBCHEM_SHAPE_SELFOVERLAP>
703.093

> <PUBCHEM_SHAPE_VOLUME>
178.4

> <PUBCHEM_COORDINATE_TYPE>
2
5
10

$$$$
