129669510
  -OEChem-12272320273D

 25 26  0     0  0  0  0  0  0999 V2000
    1.1059    1.5051    0.1068 O   0  0  0  0  0  0  0  0  0  0  0  0
   -1.1443    1.4750   -0.3378 O   0  0  0  0  0  0  0  0  0  0  0  0
    0.1458   -0.2948   -1.2119 O   0  0  0  0  0  0  0  0  0  0  0  0
   -0.1956   -0.1522    1.1953 O   0  0  0  0  0  0  0  0  0  0  0  0
    3.0850    1.9463    1.0975 O   0  0  0  0  0  0  0  0  0  0  0  0
   -3.1807    1.6955   -1.2666 O   0  0  0  0  0  0  0  0  0  0  0  0
    0.9697   -2.2438   -1.9743 O   0  0  0  0  0  0  0  0  0  0  0  0
   -0.8549   -2.0680    2.1885 O   0  0  0  0  0  0  0  0  0  0  0  0
   -0.0173    0.5784   -0.0529 C   0  0  0  0  0  0  0  0  0  0  0  0
    2.6591   -0.3170    0.4475 C   0  0  0  0  0  0  0  0  0  0  0  0
    2.5288   -0.7216   -1.0022 C   0  0  0  0  0  0  0  0  0  0  0  0
   -2.9430    0.0302    0.4255 C   0  0  0  0  0  0  0  0  0  0  0  0
   -2.1716   -1.2672    0.3582 C   0  0  0  0  0  0  0  0  0  0  0  0
    2.3120    1.1352    0.5965 C   0  0  0  0  0  0  0  0  0  0  0  0
   -2.4300    1.0955   -0.5005 C   0  0  0  0  0  0  0  0  0  0  0  0
    1.1516   -1.1789   -1.3886 C   0  0  0  0  0  0  0  0  0  0  0  0
   -1.0205   -1.2177    1.3190 C   0  0  0  0  0  0  0  0  0  0  0  0
    3.7107   -0.4207    0.7435 H   0  0  0  0  0  0  0  0  0  0  0  0
    2.0808   -0.9381    1.1344 H   0  0  0  0  0  0  0  0  0  0  0  0
    3.2017   -1.5699   -1.1813 H   0  0  0  0  0  0  0  0  0  0  0  0
    2.8324    0.0747   -1.6917 H   0  0  0  0  0  0  0  0  0  0  0  0
   -2.9827    0.4458    1.4391 H   0  0  0  0  0  0  0  0  0  0  0  0
   -3.9789   -0.1730    0.1252 H   0  0  0  0  0  0  0  0  0  0  0  0
   -1.8411   -1.5340   -0.6475 H   0  0  0  0  0  0  0  0  0  0  0  0
   -2.8285   -2.0786    0.6966 H   0  0  0  0  0  0  0  0  0  0  0  0
  1  9  1  0  0  0  0
  1 14  1  0  0  0  0
  2  9  1  0  0  0  0
  2 15  1  0  0  0  0
  3  9  1  0  0  0  0
  3 16  1  0  0  0  0
  4  9  1  0  0  0  0
  4 17  1  0  0  0  0
  5 14  2  0  0  0  0
  6 15  2  0  0  0  0
  7 16  2  0  0  0  0
  8 17  2  0  0  0  0
 10 11  1  0  0  0  0
 10 14  1  0  0  0  0
 10 18  1  0  0  0  0
 10 19  1  0  0  0  0
 11 16  1  0  0  0  0
 11 20  1  0  0  0  0
 11 21  1  0  0  0  0
 12 13  1  0  0  0  0
 12 15  1  0  0  0  0
 12 22  1  0  0  0  0
 12 23  1  0  0  0  0
 13 17  1  0  0  0  0
 13 24  1  0  0  0  0
 13 25  1  0  0  0  0
M  END
> <PUBCHEM_COMPOUND_CID>
129669510

> <PUBCHEM_CONFORMER_RMSD>
0.6

> <PUBCHEM_CONFORMER_DIVERSEORDER>
1
2

> <PUBCHEM_MMFF94_PARTIAL_CHARGES>
17
1 -0.43
10 0.06
11 0.06
12 0.06
13 0.06
14 0.66
15 0.66
16 0.66
17 0.66
2 -0.43
3 -0.43
4 -0.43
5 -0.57
6 -0.57
7 -0.57
8 -0.57
9 1.12

> <PUBCHEM_EFFECTIVE_ROTOR_COUNT>
1.6

> <PUBCHEM_PHARMACOPHORE_FEATURES>
6
1 5 acceptor
1 6 acceptor
1 7 acceptor
1 8 acceptor
7 1 3 9 10 11 14 16 rings
7 2 4 9 12 13 15 17 rings

> <PUBCHEM_HEAVY_ATOM_COUNT>
17

> <PUBCHEM_ATOM_DEF_STEREO_COUNT>
0

> <PUBCHEM_ATOM_UDEF_STEREO_COUNT>
0

> <PUBCHEM_BOND_DEF_STEREO_COUNT>
0

> <PUBCHEM_BOND_UDEF_STEREO_COUNT>
0

> <PUBCHEM_ISOTOPIC_ATOM_COUNT>
0

> <PUBCHEM_COMPONENT_COUNT>
1

> <PUBCHEM_CACTVS_TAUTO_COUNT>
1

> <PUBCHEM_CONFORMER_ID>
07BA998600000001

> <PUBCHEM_MMFF94_ENERGY>
49.1565

> <PUBCHEM_FEATURE_SELFOVERLAP>
30.45

> <PUBCHEM_SHAPE_FINGERPRINT>
11582403 64 17474327739509841489
11725454 13 17762566907475568821
12138202 97 18334581209043880919
12423570 1 18054507177592557521
12716758 59 18186525384289623915
13294875 104 17755287977385249865
13538477 17 16371305435757131195
13898156 1 16009609003798742638
14817 1 17823139088906513318
15207287 21 18267297638880811790
15219456 202 18342177773529667785
15219459 28 18409454695199614863
15309172 13 17845097440188612680
15775835 57 17677332693270529937
15852999 172 18410287004026693004
15881359 60 18058720437541865006
16945 1 18129380401839637485
17357990 137 16153721868418559111
18186145 218 18335985251238832737
20201158 50 18200036131431784790
20511035 2 18337386140906158148
20645476 183 16660943100861538051
21947302 44 18341328886022916397
22112679 90 15936412286050536030
23402539 116 18047177829346459427
23526113 38 18121526594604209838
23557571 272 18190477140918124059
23559900 14 18188774925747447074
2748010 2 18271533095115207316
7364860 26 17683507452004156763
81228 2 17969519267183563115

> <PUBCHEM_SHAPE_MULTIPOLES>
302.9
4.48
2.1
1.67
0.3
0.13
0.05
-1.58
-0.06
-0.11
-0.03
-0.06
0.88
1.75

> <PUBCHEM_SHAPE_SELFOVERLAP>
636.892

> <PUBCHEM_SHAPE_VOLUME>
163.1

> <PUBCHEM_COORDINATE_TYPE>
2
5
10

$$$$
